Version 4
SHEET 1 2564 680
WIRE 48 -560 -48 -560
WIRE 256 -560 128 -560
WIRE -48 -464 -48 -560
WIRE -48 -464 -720 -464
WIRE 416 -464 -48 -464
WIRE 624 -464 416 -464
WIRE 736 -464 624 -464
WIRE 1376 -464 736 -464
WIRE 1536 -464 1376 -464
WIRE 1616 -464 1536 -464
WIRE 1760 -464 1696 -464
WIRE 176 -400 -624 -400
WIRE 1824 -400 176 -400
WIRE 416 -336 416 -464
WIRE 736 -336 736 -464
WIRE 256 -320 256 -560
WIRE 368 -320 256 -320
WIRE 624 -320 624 -464
WIRE 1536 -320 1536 -464
WIRE 1376 -304 1376 -464
WIRE 1760 -304 1760 -464
WIRE 1760 -304 1584 -304
WIRE 416 -144 416 -240
WIRE 624 -144 624 -256
WIRE 624 -144 416 -144
WIRE 736 -144 736 -256
WIRE 736 -144 624 -144
WIRE 1024 -144 736 -144
WIRE 1376 -144 1376 -240
WIRE 1376 -144 1104 -144
WIRE 1536 -144 1536 -224
WIRE 1536 -144 1376 -144
WIRE 176 32 176 -400
WIRE 624 48 624 -144
WIRE 1824 48 1824 -400
WIRE 1376 64 1376 -144
WIRE -96 96 -96 48
WIRE -96 96 -528 96
WIRE -64 96 -96 96
WIRE -32 96 -32 48
WIRE -32 96 -64 96
WIRE 16 96 -32 96
WIRE 2032 112 2032 64
WIRE 2032 112 1984 112
WIRE 2064 112 2032 112
WIRE 2096 112 2096 64
WIRE 2096 112 2064 112
WIRE 2528 112 2096 112
WIRE -720 128 -720 -464
WIRE -624 128 -624 -400
WIRE -528 128 -528 96
WIRE 480 128 336 128
WIRE 576 128 480 128
WIRE 1520 144 1424 144
WIRE 1664 144 1520 144
WIRE 2528 144 2528 112
WIRE 624 208 624 144
WIRE 16 224 -288 224
WIRE 1376 224 1376 160
WIRE 2288 240 1984 240
WIRE 400 256 336 256
WIRE 448 256 400 256
WIRE 480 256 448 256
WIRE 624 256 624 208
WIRE 624 256 560 256
WIRE 1376 272 1376 224
WIRE 1440 272 1376 272
WIRE 1552 272 1520 272
WIRE 1600 272 1552 272
WIRE 1664 272 1600 272
WIRE -64 288 -80 288
WIRE 16 288 -64 288
WIRE 2064 304 1984 304
WIRE 2080 304 2064 304
WIRE 624 352 624 256
WIRE 400 368 400 256
WIRE 1376 368 1376 272
WIRE -288 384 -288 224
WIRE -208 384 -288 384
WIRE -80 384 -80 288
WIRE -80 384 -128 384
WIRE 1600 384 1600 272
WIRE 2080 400 2080 304
WIRE 2128 400 2080 400
WIRE 2288 400 2288 240
WIRE 2288 400 2208 400
FLAG 624 432 0
FLAG 176 352 0
FLAG -720 208 0
FLAG -624 208 0
FLAG -80 448 0
FLAG -288 448 0
FLAG 624 208 SENSE
FLAG 480 128 G
FLAG -64 288 OSC
FLAG -96 -32 0
FLAG -64 96 FB
FLAG -32 -16 0
FLAG 400 432 0
FLAG 448 256 is
FLAG -528 208 0
FLAG 1376 448 0
FLAG 1824 368 0
FLAG 2080 464 0
FLAG 2288 464 0
FLAG 1376 224 SENSE2
FLAG 1520 144 G2
FLAG 2064 304 OSC2
FLAG 2096 -16 0
FLAG 2064 112 FB2
FLAG 2032 0 0
FLAG 1600 448 0
FLAG 1552 272 is2
FLAG 2528 224 0
SYMBOL PowerProducts\\LT1241 176 192 R0
SYMATTR InstName U1
SYMBOL nmos 576 48 R0
SYMATTR InstName M1
SYMATTR Value IRF7807
SYMBOL res 608 336 R0
SYMATTR InstName R1
SYMATTR Value 0.1
SYMBOL ind 1008 -128 R270
WINDOW 0 32 56 VTop 2
WINDOW 3 5 56 VBottom 2
SYMATTR InstName L1
SYMATTR Value 2µ
SYMBOL voltage -624 112 R0
WINDOW 123 0 0 Left 0
WINDOW 39 0 0 Left 0
SYMATTR InstName V1
SYMATTR Value 12
SYMBOL voltage -720 112 R0
WINDOW 123 0 0 Left 0
WINDOW 39 0 0 Left 0
SYMATTR InstName V2
SYMATTR Value 30
SYMBOL cap -304 384 R0
SYMATTR InstName C1
SYMATTR Value 100n
SYMBOL cap -96 384 R0
SYMATTR InstName C2
SYMATTR Value 300p
SYMBOL res -112 368 R90
WINDOW 0 0 56 VBottom 2
WINDOW 3 32 56 VTop 2
SYMATTR InstName R2
SYMATTR Value 10k
SYMBOL diode 640 -256 R180
WINDOW 0 24 64 Left 2
WINDOW 3 24 0 Left 2
SYMATTR InstName D1
SYMATTR Value RFUS20TF6S
SYMBOL res -80 64 R180
WINDOW 0 36 76 Left 2
WINDOW 3 36 40 Left 2
SYMATTR InstName R4
SYMATTR Value 100k
SYMBOL cap -48 -16 R0
SYMATTR InstName C3
SYMATTR Value 1n
SYMBOL res 576 240 R90
WINDOW 0 0 56 VBottom 2
WINDOW 3 32 56 VTop 2
SYMATTR InstName R3
SYMATTR Value 100
SYMBOL cap 384 368 R0
SYMATTR InstName C4
SYMATTR Value 1n
SYMBOL voltage -528 112 R0
WINDOW 123 0 0 Left 0
WINDOW 39 0 0 Left 0
SYMATTR InstName V3
SYMATTR Value PULSE(3 0 100u 1n 1n 50u 150u 3)
SYMBOL PowerProducts\\LT1241 1824 208 M0
SYMATTR InstName U2
SYMBOL nmos 1424 64 M0
SYMATTR InstName M2
SYMATTR Value IRF7807
SYMBOL res 1392 352 M0
SYMATTR InstName R5
SYMATTR Value 0.1
SYMBOL cap 2304 400 M0
SYMATTR InstName C5
SYMATTR Value 100n
SYMBOL cap 2096 400 M0
SYMATTR InstName C6
SYMATTR Value 300p
SYMBOL res 2112 384 M90
WINDOW 0 0 56 VBottom 2
WINDOW 3 32 56 VTop 2
SYMATTR InstName R6
SYMATTR Value 10k
SYMBOL res 2080 80 M180
WINDOW 0 36 76 Left 2
WINDOW 3 36 40 Left 2
SYMATTR InstName R7
SYMATTR Value 100k
SYMBOL cap 2048 0 M0
SYMATTR InstName C7
SYMATTR Value 1n
SYMBOL res 1424 256 M90
WINDOW 0 0 56 VBottom 2
WINDOW 3 32 56 VTop 2
SYMATTR InstName R8
SYMATTR Value 100
SYMBOL cap 1616 384 M0
SYMATTR InstName C8
SYMATTR Value 1n
SYMBOL voltage 2528 128 M0
WINDOW 123 0 0 Left 0
WINDOW 39 0 0 Left 0
SYMATTR InstName V4
SYMATTR Value PULSE(3 0 200u 1n 1n 50u 150u 3)
SYMBOL diode 1392 -240 R180
WINDOW 0 24 64 Left 2
WINDOW 3 24 0 Left 2
SYMATTR InstName D2
SYMATTR Value RFUS20TF6S
SYMBOL pmos 368 -240 M180
SYMATTR InstName M3
SYMATTR Value FDS4435A
SYMBOL pmos 1584 -224 R180
SYMATTR InstName M4
SYMATTR Value FDS4435A
SYMBOL voltage 1600 -464 R270
WINDOW 123 0 0 Left 0
WINDOW 39 0 0 Left 0
SYMATTR InstName V5
SYMATTR Value PULSE(0 6 100u 1n 1n 50u 150u 3)
SYMBOL voltage 32 -560 M90
WINDOW 123 0 0 Left 0
WINDOW 39 0 0 Left 0
SYMATTR InstName V6
SYMATTR Value PULSE(0 6 200u 1n 1n 50u 150u 3)
SYMBOL res 720 -352 R0
SYMATTR InstName R9
SYMATTR Value 10k
TEXT -754 472 Left 2 !.tran 600u
