Version 4
SHEET 1 2564 680
WIRE 448 -464 -720 -464
WIRE 528 -464 448 -464
WIRE 624 -464 528 -464
WIRE 176 -400 -624 -400
WIRE 624 -352 624 -464
WIRE 448 -272 448 -464
WIRE 624 -256 624 -272
WIRE 944 -256 624 -256
WIRE 624 -224 624 -256
WIRE 944 -208 944 -256
WIRE 624 -176 624 -224
WIRE 448 -32 448 -208
WIRE 624 -32 624 -80
WIRE 624 -32 448 -32
WIRE 816 -32 624 -32
WIRE 944 -32 944 -128
WIRE 944 -32 816 -32
WIRE 624 0 624 -32
WIRE 176 32 176 -400
WIRE 624 48 624 0
WIRE 816 80 816 -32
WIRE 944 80 944 -32
WIRE -96 96 -96 48
WIRE -64 96 -96 96
WIRE -32 96 -32 48
WIRE -32 96 -64 96
WIRE 16 96 -32 96
WIRE -720 128 -720 -464
WIRE -624 128 -624 -400
WIRE 480 128 336 128
WIRE 576 128 480 128
WIRE 624 192 624 144
WIRE 16 224 -288 224
WIRE 400 256 336 256
WIRE 448 256 400 256
WIRE 480 256 448 256
WIRE 624 256 624 192
WIRE 624 256 560 256
WIRE -64 288 -80 288
WIRE 16 288 -64 288
WIRE 624 352 624 256
WIRE 400 368 400 256
WIRE -288 384 -288 224
WIRE -208 384 -288 384
WIRE -80 384 -80 288
WIRE -80 384 -128 384
FLAG 624 432 0
FLAG 176 352 0
FLAG -720 208 0
FLAG -624 208 0
FLAG -80 448 0
FLAG -288 448 0
FLAG 624 192 SENSE
FLAG 480 128 G
FLAG -64 288 OSC
FLAG -96 -32 0
FLAG -64 96 FB
FLAG -32 -16 0
FLAG 400 432 0
FLAG 448 256 is
FLAG 528 -464 HV
FLAG 624 -224 LLOW
FLAG 624 0 BLOW
FLAG 816 160 0
FLAG 944 144 0
SYMBOL PowerProducts\\LT1241 176 192 R0
SYMATTR InstName U1
SYMBOL res 608 336 R0
SYMATTR InstName R1
SYMATTR Value 0.1
SYMBOL ind 640 -256 R180
WINDOW 0 36 80 Left 2
WINDOW 3 36 40 Left 2
SYMATTR InstName L1
SYMATTR Value 5µ
SYMBOL voltage -624 112 R0
WINDOW 123 0 0 Left 2
WINDOW 39 0 0 Left 2
SYMATTR InstName V1
SYMATTR Value 12
SYMBOL voltage -720 112 R0
WINDOW 123 0 0 Left 2
WINDOW 39 0 0 Left 2
SYMATTR InstName V2
SYMATTR Value PULSE(0 300 10u 1n 1n 1 2 2)
SYMBOL cap -304 384 R0
SYMATTR InstName C1
SYMATTR Value 100n
SYMBOL cap -96 384 R0
SYMATTR InstName C2
SYMATTR Value 300p
SYMBOL res -112 368 R90
WINDOW 0 0 56 VBottom 2
WINDOW 3 32 56 VTop 2
SYMATTR InstName R2
SYMATTR Value 10k
SYMBOL res -80 64 R180
WINDOW 0 36 76 Left 2
WINDOW 3 36 40 Left 2
SYMATTR InstName R4
SYMATTR Value 100k
SYMBOL cap -48 -16 R0
SYMATTR InstName C3
SYMATTR Value 1n
SYMBOL res 576 240 R90
WINDOW 0 0 56 VBottom 2
WINDOW 3 32 56 VTop 2
SYMATTR InstName R3
SYMATTR Value 100
SYMBOL cap 384 368 R0
SYMATTR InstName C4
SYMATTR Value 1n
SYMBOL nmos 576 48 R0
SYMATTR InstName M1
SYMATTR Value STP8NM60
SYMBOL Misc\\neonbulb 624 -128 R0
WINDOW 123 16 -20 Left 2
WINDOW 39 16 8 Left 2
WINDOW 40 16 36 Left 2
SYMATTR InstName U2
SYMATTR Value2 Vstrike=100 Vhold=20
SYMATTR SpiceLine Zon=5 Ihold=200m
SYMATTR SpiceLine2 Tau=0.1u
SYMBOL res 800 64 R0
SYMATTR InstName R5
SYMATTR Value 100k
SYMBOL diode 464 -208 R180
WINDOW 0 24 64 Left 2
WINDOW 3 24 0 Left 2
SYMATTR InstName D1
SYMATTR Value MUR460
SYMBOL cap 928 80 R0
SYMATTR InstName C6
SYMATTR Value 1n
SYMBOL res 928 -224 R0
SYMATTR InstName R7
SYMATTR Value 1k
TEXT -752 472 Left 2 !.tran 200u
